Version 4
SHEET 1 880 680
WIRE 416 -240 -272 -240
WIRE 464 -240 416 -240
WIRE 416 -176 416 -240
WIRE 400 -144 16 -144
WIRE 128 -64 -16 -64
WIRE 464 -64 464 -240
WIRE 464 -64 352 -64
WIRE -272 -16 -272 -240
WIRE -96 -16 -272 -16
WIRE 16 0 16 -144
WIRE 128 0 16 0
WIRE 416 0 416 -96
WIRE 416 0 352 0
WIRE 448 0 416 0
WIRE 608 0 528 0
WIRE -272 32 -272 -16
WIRE 16 32 16 0
WIRE 128 64 96 64
WIRE 400 64 400 -144
WIRE 400 64 352 64
WIRE 608 64 608 0
WIRE 608 64 400 64
WIRE -96 128 -96 -16
WIRE 128 128 -96 128
WIRE 96 176 96 64
WIRE -272 192 -272 112
WIRE -80 192 -272 192
WIRE -16 192 -16 -64
WIRE -16 192 -80 192
WIRE 16 192 16 96
WIRE 16 192 -16 192
WIRE -16 240 -16 192
WIRE 96 320 96 256
WIRE -80 416 -80 192
WIRE 96 416 96 384
WIRE 96 416 -80 416
FLAG -16 240 0
SYMBOL Misc\\NE555 240 32 R0
SYMATTR InstName U1
SYMBOL voltage -272 16 R0
WINDOW 123 0 0 Left 0
WINDOW 39 0 0 Left 0
SYMATTR InstName V1
SYMATTR Value 3
SYMBOL cap 0 32 R0
SYMATTR InstName C1
SYMATTR Value 1µF
SYMBOL res 544 -16 R90
WINDOW 0 0 56 VBottom 2
WINDOW 3 32 56 VTop 2
SYMATTR InstName R1
SYMATTR Value 470k
SYMBOL res 400 -192 R0
SYMATTR InstName R2
SYMATTR Value 1k
SYMBOL res 80 160 R0
SYMATTR InstName R3
SYMATTR Value 1k
SYMBOL diode 80 320 R0
SYMATTR InstName D1
TEXT -384 280 Left 2 !.tran 10
